
**** 11/13/23 15:09:30 ******* PSpice Lite (March 2016) ******* ID# 10813 ****

 ** Profile: "SCHEMATIC1-sim2"  [ C:\Users\Bogdan\Desktop\ETTI\An 3 - Sem 1\P1\p1 bun-pspicefiles\schematic1\sim2.sim ] 


 ****     CIRCUIT DESCRIPTION


******************************************************************************




** Creating circuit file "sim2.cir" 
** WARNING: THIS AUTOMATICALLY GENERATED FILE MAY BE OVERWRITTEN BY SUBSEQUENT SIMULATIONS

*Libraries: 
* Profile Libraries :
* Local Libraries :
.LIB "C:/Cadence/SPB_17.2/tools/capture/library/pspice/BZX84C2V7.lib" 
.LIB "C:/Cadence/SPB_17.2/tools/capture/library/pspice/SMLS14BET.lib" 
.LIB "C:/Cadence/SPB_17.2/tools/capture/library/pspice/MJD31CG.lib" 
.LIB "C:/Cadence/SPB_17.2/tools/capture/library/pspice/BC856B.lib" 
.LIB "C:/Cadence/SPB_17.2/tools/capture/library/pspice/BZX84C5V6.lib" 
.LIB "C:/Cadence/SPB_17.2/tools/capture/library/pspice/BC846B.lib" 
* From [PSPICE NETLIST] section of C:\Users\Bogdan\AppData\Roaming\SPB_Data\cdssetup\OrCAD_PSpice\17.2.0\PSpice.ini file:
.lib "nomd.lib" 

*Analysis directives: 
.DC LIN TEMP 0 200 0.01 
.OPTIONS ADVCONV
.PROBE64 V(alias(*)) I(alias(*)) W(alias(*)) D(alias(*)) NOISE(alias(*)) 
.INC "..\SCHEMATIC1.net" 



**** INCLUDING SCHEMATIC1.net ****
* source P1 BUN
Q_Q8         TEMP N03301 N05464 QBC846B 
Q_Q10         VCC TEMP N35529 QBC846B 
R_R6         N01284 VCC  10k TC=0,0 
R_R7         N04251 VCC  1k TC=0,0 
R_R8         N04200 VCC  1k TC=0,0 
R_R9         N14345 N04129  1k TC=0,0 
Q_Q13         N04204 N38194 N04129 QBC846B 
Q_Q14         TEMP N37897 N04129 QBC846B 
V_V1         VCC 0 34.2Vdc
D_D2         0 N01284 BZX84-C5V6 
R_R16         N22117 N05464  2k TC=0,0 
X_R14         N11542 N37526 N22101 POT PARAMS: SET=1 VALUE=2k
R_R18         N22101 N22117  820 TC=0,0 
Q_Q17         N04204 N04204 N04251 QBC856B 
Q_Q18         TEMP N04204 N04200 QBC856B 
R_R21         N26191 N22997  150 TC=0,0 
R_R22         N21864 N05464  0.47 TC=0,0 
C_C1         0 N05464  1n  TC=0,0 
R_R27         N26106 N05464  150 TC=0,0 
R_R28         N22993 N26106  150 TC=0,0 
D_D3         N21332 0 SMLS14BET 
R_R31         N21156 N21003  680 TC=0,0 
R_R32         N21365 N21156  680 TC=0,0 
R_R33         N21332 N21365  680 TC=0,0 
R_R34         N21868 N21864  0.47 TC=0,0 
R_R35         N03301 N21868  0.47 TC=0,0 
R_R36         0 N11542  2k TC=0,0 
R_R37         N22997 N22993  150 TC=0,0 
D_D4         N25728 0 SMLS14BET 
R_R38         N25552 N05464  220 TC=0,0 
R_R43         N25724 N25552  220 TC=0,0 
R_R44         N25842 N25724  220 TC=0,0 
R_R46         N25728 N25842  150 TC=0,0 
R_R47         N26235 N26191  150 TC=0,0 
R_R48         0 N26235  10 TC=0,0 
Q_Q20         VCC N35529 N03301 QMJD31C 
R_R30         N21003 VCC  680 TC=0,0 
R_R49         N37897 N37526  510 TC=0,0 
R_R50         N01284 N38194  510 TC=0,0 
Q_Q19         TEMP N55818 0 QBC846B 
R_R52         N58949 N01284  2k TC=0,0 
R_R54         N58806 N55818  470 TC=0,0 
R_R55         0 N58806  33 TC=0,0 
R_R56         N55818 N58949  3.3k TC=0,0 
.PARAM  set=0.5

**** RESUMING sim2.cir ****
.END

ERROR(ORPSIM-15141): Less than 2 connections at node N14345.
