
**** 11/13/23 00:53:53 ******* PSpice Lite (March 2016) ******* ID# 10813 ****

 ** Profile: "SCHEMATIC1-sim3"  [ C:\Users\Bogdan\Desktop\ETTI\An 3 - Sem 1\P1\p1 bun-pspicefiles\schematic1\sim3.sim ] 


 ****     CIRCUIT DESCRIPTION


******************************************************************************




** Creating circuit file "sim3.cir" 
** WARNING: THIS AUTOMATICALLY GENERATED FILE MAY BE OVERWRITTEN BY SUBSEQUENT SIMULATIONS

*Libraries: 
* Profile Libraries :
* Local Libraries :
.LIB "C:/Cadence/SPB_17.2/tools/capture/library/pspice/SMLS14BET.lib" 
.LIB "C:/Cadence/SPB_17.2/tools/capture/library/pspice/MJD31CG.lib" 
.LIB "C:/Cadence/SPB_17.2/tools/capture/library/pspice/BC856B.lib" 
.LIB "C:/Cadence/SPB_17.2/tools/capture/library/pspice/BZX84C5V6.lib" 
.LIB "C:/Cadence/SPB_17.2/tools/capture/library/pspice/BC846B.lib" 
* From [PSPICE NETLIST] section of C:\Users\Bogdan\AppData\Roaming\SPB_Data\cdssetup\OrCAD_PSpice\17.2.0\PSpice.ini file:
.lib "nomd.lib" 

*Analysis directives: 
.OPTIONS ADVCONV
.PROBE64 V(alias(*)) I(alias(*)) W(alias(*)) D(alias(*)) NOISE(alias(*)) 
.INC "..\SCHEMATIC1.net" 



**** INCLUDING SCHEMATIC1.net ****
* source P1 BUN
Q_Q8         TEMP N03301 N05464 QBC846B 
Q_Q10         N01152 TEMP N35529 QBC846B 
R_R6         - N01152  10k TC=0,0 
R_R7         N04251 N01152  1k TC=0,0 
R_R8         N04200 N01152  1k TC=0,0 
R_R9         0 N04129  1k TC=0,0 
Q_Q13         N04204 N38194 N04129 QBC846B 
Q_Q14         TEMP N37897 N04129 QBC846B 
V_V1         N01152 0 38Vdc
D_D2         0 - BZX84-C5V6 
R_R16         N22117 N05464  2k TC=0,0 
X_R14         N11542 N37526 N22101 POT PARAMS: SET=1 VALUE=2k
R_R18         N22101 N22117  820 TC=0,0 
Q_Q17         N04204 N04204 N04251 QBC856B 
Q_Q18         TEMP N04204 N04200 QBC856B 
R_R21         N26191 N22997  150 TC=0,0 
R_R22         N21864 N05464  0.47 TC=0,0 
R_R24         N18136 -  6.8k TC=0,0 
C_C1         0 N05464  1n  TC=0,0 
R_R27         N26106 N05464  150 TC=0,0 
R_R28         N22993 N26106  150 TC=0,0 
D_D3         N21332 0 SMLS14BET 
R_R31         N21156 N21003  680 TC=0,0 
R_R32         N21365 N21156  680 TC=0,0 
R_R33         N21332 N21365  680 TC=0,0 
R_R34         N21868 N21864  0.47 TC=0,0 
R_R35         N03301 N21868  0.47 TC=0,0 
R_R36         0 N11542  2k TC=0,0 
R_R37         N22997 N22993  150 TC=0,0 
D_D4         N25728 0 SMLS14BET 
R_R38         N25552 N05464  220 TC=0,0 
R_R43         N25724 N25552  220 TC=0,0 
R_R44         N25842 N25724  220 TC=0,0 
R_R46         N25728 N25842  150 TC=0,0 
R_R47         N26235 N26191  150 TC=0,0 
R_R48         0 N26235  10 TC=0,0 
Q_Q20         N01152 N35529 N03301 QMJD31C 
R_R30         N21003 N01152  680 TC=0,0 
R_R49         N37897 N37526  510 TC=0,0 
R_R50         - N38194  510 TC=0,0 
Q_Q19         N18136 TEMP N40756 QBC846B 
R_R51         N40762 TEMP  6.8k TC=0,0 
Q_Q21         N40762 N40756 N407421 QBC856B 
D_D5         0 N40762 BZX84-C2V7 
R_R52         0 N40756  6.8k TC=0,0 
R_R53         0 N407421  6.8k TC=0,0 
.PARAM  set=0.5

**** RESUMING sim3.cir ****
.END


ERROR(ORPSIM-15113): Model BZX84-C2V7 used by D_D5 is undefined
